cgmes/cgmes-conversion/src/test/resources/cim14/ieee14.xiidm
<?xml version='1.0' encoding='UTF-8'?>
<iidm:network xmlns:iidm="http://www.powsybl.org/schema/iidm/1_2" id="ieee14bus" caseDate="2019-04-01T15:09:54.703+02:00" forecastDistance="0" sourceFormat="CIM1">
    <iidm:substation id="_BUS___10_SS" name="BUS   10_SS" geographicalTags="_SGR_01">
        <iidm:voltageLevel id="_BUS___10_VL" name="BUS   10_VL" nominalV="13.800000190734863" topologyKind="BUS_BREAKER">
            <iidm:busBreakerTopology>
                <iidm:bus id="_BUS___10_TN" v="14.524100303649902" angle="-15.113293647766113"/>
            </iidm:busBreakerTopology>
            <iidm:load id="_LOAD__10_EC" name="LOAD  10" loadType="UNDEFINED" p0="9.0" q0="5.800000190734863" bus="_BUS___10_TN" connectableBus="_BUS___10_TN" p="9.0" q="5.800000190734863"/>
        </iidm:voltageLevel>
    </iidm:substation>
    <iidm:substation id="_BUS___11_SS" name="BUS   11_SS" geographicalTags="_SGR_01">
        <iidm:voltageLevel id="_BUS___11_VL" name="BUS   11_VL" nominalV="13.800000190734863" topologyKind="BUS_BREAKER">
            <iidm:busBreakerTopology>
                <iidm:bus id="_BUS___11_TN" v="14.59589958190918" angle="-14.809061050415039"/>
            </iidm:busBreakerTopology>
            <iidm:load id="_LOAD__11_EC" name="LOAD  11" loadType="UNDEFINED" p0="3.5" q0="1.7999999523162842" bus="_BUS___11_TN" connectableBus="_BUS___11_TN" p="3.5" q="1.7999999523162842"/>
        </iidm:voltageLevel>
    </iidm:substation>
    <iidm:substation id="_BUS___12_SS" name="BUS   12_SS" geographicalTags="_SGR_01">
        <iidm:voltageLevel id="_BUS___12_VL" name="BUS   12_VL" nominalV="13.800000190734863" topologyKind="BUS_BREAKER">
            <iidm:busBreakerTopology>
                <iidm:bus id="_BUS___12_TN" v="14.563400268554688" angle="-15.092975616455078"/>
            </iidm:busBreakerTopology>
            <iidm:load id="_LOAD__12_EC" name="LOAD  12" loadType="UNDEFINED" p0="6.099999904632568" q0="1.600000023841858" bus="_BUS___12_TN" connectableBus="_BUS___12_TN" p="6.099999904632568" q="1.600000023841858"/>
        </iidm:voltageLevel>
    </iidm:substation>
    <iidm:substation id="_BUS___13_SS" name="BUS   13_SS" geographicalTags="_SGR_01">
        <iidm:voltageLevel id="_BUS___13_VL" name="BUS   13_VL" nominalV="13.800000190734863" topologyKind="BUS_BREAKER">
            <iidm:busBreakerTopology>
                <iidm:bus id="_BUS___13_TN" v="14.49899959564209" angle="-15.174944877624512"/>
            </iidm:busBreakerTopology>
            <iidm:load id="_LOAD__13_EC" name="LOAD  13" loadType="UNDEFINED" p0="13.5" q0="5.800000190734863" bus="_BUS___13_TN" connectableBus="_BUS___13_TN" p="13.5" q="5.800000190734863"/>
        </iidm:voltageLevel>
    </iidm:substation>
    <iidm:substation id="_BUS___14_SS" name="BUS   14_SS" geographicalTags="_SGR_01">
        <iidm:voltageLevel id="_BUS___14_VL" name="BUS   14_VL" nominalV="13.800000190734863" topologyKind="BUS_BREAKER">
            <iidm:busBreakerTopology>
                <iidm:bus id="_BUS___14_TN" v="14.30620002746582" angle="-16.048330307006836"/>
            </iidm:busBreakerTopology>
            <iidm:load id="_LOAD__14_EC" name="LOAD  14" loadType="UNDEFINED" p0="14.899999618530273" q0="5.0" bus="_BUS___14_TN" connectableBus="_BUS___14_TN" p="14.899999618530273" q="5.0"/>
        </iidm:voltageLevel>
    </iidm:substation>
    <iidm:substation id="_BUS____1_SS" name="BUS    1_SS" geographicalTags="_SGR_01">
        <iidm:voltageLevel id="_BUS____1_VL" name="BUS    1_VL" nominalV="69.0" topologyKind="BUS_BREAKER">
            <iidm:busBreakerTopology>
                <iidm:bus id="_BUS____1_TN" v="73.13999938964844" angle="0.0"/>
            </iidm:busBreakerTopology>
            <iidm:generator id="_GEN____1_SM" name="GEN    1" energySource="OTHER" minP="-9999.0" maxP="9999.0" voltageRegulatorOn="true" targetP="232.3699951171875" targetV="73.13999938964844" targetQ="-17.26449966430664" bus="_BUS____1_TN" connectableBus="_BUS____1_TN" p="-232.3699951171875" q="17.26449966430664">
                <iidm:minMaxReactiveLimits minQ="-999.0" maxQ="999.0"/>
            </iidm:generator>
        </iidm:voltageLevel>
    </iidm:substation>
    <iidm:substation id="_BUS____2_SS" name="BUS    2_SS" geographicalTags="_SGR_01">
        <iidm:voltageLevel id="_BUS____2_VL" name="BUS    2_VL" nominalV="69.0" topologyKind="BUS_BREAKER">
            <iidm:busBreakerTopology>
                <iidm:bus id="_BUS____2_TN" v="72.1050033569336" angle="-4.979506969451904"/>
            </iidm:busBreakerTopology>
            <iidm:generator id="_GEN____2_SM" name="GEN    2" energySource="OTHER" minP="-9999.0" maxP="9999.0" voltageRegulatorOn="true" targetP="40.0" targetV="72.1050033569336" targetQ="42.1343994140625" bus="_BUS____2_TN" connectableBus="_BUS____2_TN" p="-40.0" q="-42.1343994140625">
                <iidm:minMaxReactiveLimits minQ="-40.0" maxQ="50.0"/>
            </iidm:generator>
            <iidm:load id="_LOAD___2_EC" name="LOAD   2" loadType="UNDEFINED" p0="21.700000762939453" q0="12.699999809265137" bus="_BUS____2_TN" connectableBus="_BUS____2_TN" p="21.700000762939453" q="12.699999809265137"/>
        </iidm:voltageLevel>
    </iidm:substation>
    <iidm:substation id="_BUS____3_SS" name="BUS    3_SS" geographicalTags="_SGR_01">
        <iidm:voltageLevel id="_BUS____3_VL" name="BUS    3_VL" nominalV="69.0" topologyKind="BUS_BREAKER">
            <iidm:busBreakerTopology>
                <iidm:bus id="_BUS____3_TN" v="69.69000244140625" angle="-12.716755867004395"/>
            </iidm:busBreakerTopology>
            <iidm:generator id="_GEN____3_SM" name="GEN    3" energySource="OTHER" minP="-9999.0" maxP="9999.0" voltageRegulatorOn="true" targetP="-0.0" targetV="69.69000244140625" targetQ="24.587400436401367" bus="_BUS____3_TN" connectableBus="_BUS____3_TN" p="0.0" q="-24.587400436401367">
                <iidm:minMaxReactiveLimits minQ="0.0" maxQ="40.0"/>
            </iidm:generator>
            <iidm:load id="_LOAD___3_EC" name="LOAD   3" loadType="UNDEFINED" p0="94.19999694824219" q0="19.0" bus="_BUS____3_TN" connectableBus="_BUS____3_TN" p="94.19999694824219" q="19.0"/>
        </iidm:voltageLevel>
    </iidm:substation>
    <iidm:substation id="_BUS____4_SS" name="BUS    4_SS" geographicalTags="_SGR_01">
        <iidm:voltageLevel id="_BUS____9_VL" name="BUS    9_VL" nominalV="13.800000190734863" topologyKind="BUS_BREAKER">
            <iidm:busBreakerTopology>
                <iidm:bus id="_BUS____9_TN" v="14.596500396728516" angle="-14.953522682189941"/>
            </iidm:busBreakerTopology>
            <iidm:load id="_LOAD___9_EC" name="LOAD   9" loadType="UNDEFINED" p0="29.5" q0="16.600000381469727" bus="_BUS____9_TN" connectableBus="_BUS____9_TN" p="29.5" q="16.600000381469727"/>
            <iidm:shunt id="_BANK___9_SC" name="BANK   9" bPerSection="0.09976900368928909" maximumSectionCount="1" currentSectionCount="1" voltageRegulatorOn="false" bus="_BUS____9_TN" connectableBus="_BUS____9_TN"/>
        </iidm:voltageLevel>
        <iidm:voltageLevel id="_BUS____7_VL" name="BUS    7_VL" nominalV="13.800000190734863" topologyKind="BUS_BREAKER">
            <iidm:busBreakerTopology>
                <iidm:bus id="_BUS____7_TN" v="14.656100273132324" angle="-13.3749361038208"/>
            </iidm:busBreakerTopology>
        </iidm:voltageLevel>
        <iidm:voltageLevel id="_BUS____4_VL" name="BUS    4_VL" nominalV="69.0" topologyKind="BUS_BREAKER">
            <iidm:busBreakerTopology>
                <iidm:bus id="_BUS____4_TN" v="70.27559661865234" angle="-10.319840431213379"/>
            </iidm:busBreakerTopology>
            <iidm:load id="_LOAD___4_EC" name="LOAD   4" loadType="UNDEFINED" p0="47.79999923706055" q0="-3.9000000953674316" bus="_BUS____4_TN" connectableBus="_BUS____4_TN" p="47.79999923706055" q="-3.9000000953674316"/>
        </iidm:voltageLevel>
        <iidm:twoWindingsTransformer id="_BUS____4-BUS____9-1_PT" name="BUS    4-BUS    9-1" r="0.0" x="1.0591881275177002" g="0.0" b="0.0" ratedU1="69.0" ratedU2="13.800000190734863" bus1="_BUS____4_TN" connectableBus1="_BUS____4_TN" voltageLevelId1="_BUS____4_VL" bus2="_BUS____9_TN" connectableBus2="_BUS____9_TN" voltageLevelId2="_BUS____9_VL">
            <iidm:ratioTapChanger lowTapPosition="1" tapPosition="4" loadTapChangingCapabilities="false">
                <iidm:step r="0.0" x="0.0" g="0.0" b="0.0" rho="1.1111111640930176"/>
                <iidm:step r="0.0" x="0.0" g="0.0" b="0.0" rho="1.08695650100708"/>
                <iidm:step r="0.0" x="0.0" g="0.0" b="0.0" rho="1.063829779624939"/>
                <iidm:step r="0.0" x="0.0" g="0.0" b="0.0" rho="1.0416667461395264"/>
                <iidm:step r="0.0" x="0.0" g="0.0" b="0.0" rho="1.0204081535339355"/>
                <iidm:step r="0.0" x="0.0" g="0.0" b="0.0" rho="1.0"/>
                <iidm:step r="0.0" x="0.0" g="0.0" b="0.0" rho="0.9803921580314636"/>
                <iidm:step r="0.0" x="0.0" g="0.0" b="0.0" rho="0.9615384936332703"/>
                <iidm:step r="0.0" x="0.0" g="0.0" b="0.0" rho="0.943396270275116"/>
                <iidm:step r="0.0" x="0.0" g="0.0" b="0.0" rho="0.9259259104728699"/>
                <iidm:step r="0.0" x="0.0" g="0.0" b="0.0" rho="0.9090908765792847"/>
            </iidm:ratioTapChanger>
            <iidm:currentLimits1 permanentLimit="836.739990234375"/>
            <iidm:currentLimits2 permanentLimit="4183.7001953125"/>
        </iidm:twoWindingsTransformer>
        <iidm:twoWindingsTransformer id="_BUS____4-BUS____7-1_PT" name="BUS    4-BUS    7-1" r="0.0" x="0.39824801683425903" g="0.0" b="0.0" ratedU1="69.0" ratedU2="13.800000190734863" bus1="_BUS____4_TN" connectableBus1="_BUS____4_TN" voltageLevelId1="_BUS____4_VL" bus2="_BUS____7_TN" connectableBus2="_BUS____7_TN" voltageLevelId2="_BUS____7_VL">
            <iidm:ratioTapChanger lowTapPosition="1" tapPosition="5" loadTapChangingCapabilities="false">
                <iidm:step r="0.0" x="0.0" g="0.0" b="0.0" rho="1.1111111640930176"/>
                <iidm:step r="0.0" x="0.0" g="0.0" b="0.0" rho="1.08695650100708"/>
                <iidm:step r="0.0" x="0.0" g="0.0" b="0.0" rho="1.063829779624939"/>
                <iidm:step r="0.0" x="0.0" g="0.0" b="0.0" rho="1.0416667461395264"/>
                <iidm:step r="0.0" x="0.0" g="0.0" b="0.0" rho="1.0204081535339355"/>
                <iidm:step r="0.0" x="0.0" g="0.0" b="0.0" rho="1.0"/>
                <iidm:step r="0.0" x="0.0" g="0.0" b="0.0" rho="0.9803921580314636"/>
                <iidm:step r="0.0" x="0.0" g="0.0" b="0.0" rho="0.9615384936332703"/>
                <iidm:step r="0.0" x="0.0" g="0.0" b="0.0" rho="0.943396270275116"/>
                <iidm:step r="0.0" x="0.0" g="0.0" b="0.0" rho="0.9259259104728699"/>
                <iidm:step r="0.0" x="0.0" g="0.0" b="0.0" rho="0.9090908765792847"/>
            </iidm:ratioTapChanger>
            <iidm:currentLimits1 permanentLimit="836.739990234375"/>
            <iidm:currentLimits2 permanentLimit="4183.7001953125"/>
        </iidm:twoWindingsTransformer>
    </iidm:substation>
    <iidm:substation id="_BUS____5_SS" name="BUS    5_SS" geographicalTags="_SGR_01">
        <iidm:voltageLevel id="_BUS____6_VL" name="BUS    6_VL" nominalV="13.800000190734863" topologyKind="BUS_BREAKER">
            <iidm:busBreakerTopology>
                <iidm:bus id="_BUS____6_TN" v="14.765999794006348" angle="-14.239948272705078"/>
            </iidm:busBreakerTopology>
            <iidm:generator id="_GEN____6_SM" name="GEN    6" energySource="OTHER" minP="-9999.0" maxP="9999.0" voltageRegulatorOn="true" targetP="-0.0" targetV="14.765999794006348" targetQ="15.40820026397705" bus="_BUS____6_TN" connectableBus="_BUS____6_TN" p="0.0" q="-15.40820026397705">
                <iidm:minMaxReactiveLimits minQ="-6.0" maxQ="24.0"/>
            </iidm:generator>
            <iidm:load id="_LOAD___6_EC" name="LOAD   6" loadType="UNDEFINED" p0="11.199999809265137" q0="7.5" bus="_BUS____6_TN" connectableBus="_BUS____6_TN" p="11.199999809265137" q="7.5"/>
        </iidm:voltageLevel>
        <iidm:voltageLevel id="_BUS____5_VL" name="BUS    5_VL" nominalV="69.0" topologyKind="BUS_BREAKER">
            <iidm:busBreakerTopology>
                <iidm:bus id="_BUS____5_TN" v="70.4552001953125" angle="-8.789777755737305"/>
            </iidm:busBreakerTopology>
            <iidm:load id="_LOAD___5_EC" name="LOAD   5" loadType="UNDEFINED" p0="7.599999904632568" q0="1.600000023841858" bus="_BUS____5_TN" connectableBus="_BUS____5_TN" p="7.599999904632568" q="1.600000023841858"/>
        </iidm:voltageLevel>
        <iidm:twoWindingsTransformer id="_BUS____5-BUS____6-1_PT" name="BUS    5-BUS    6-1" r="0.0" x="0.4799480438232422" g="0.0" b="0.0" ratedU1="69.0" ratedU2="13.800000190734863" bus1="_BUS____5_TN" connectableBus1="_BUS____5_TN" voltageLevelId1="_BUS____5_VL" bus2="_BUS____6_TN" connectableBus2="_BUS____6_TN" voltageLevelId2="_BUS____6_VL">
            <iidm:ratioTapChanger lowTapPosition="1" tapPosition="3" loadTapChangingCapabilities="false">
                <iidm:step r="0.0" x="0.0" g="0.0" b="0.0" rho="1.1111111640930176"/>
                <iidm:step r="0.0" x="0.0" g="0.0" b="0.0" rho="1.08695650100708"/>
                <iidm:step r="0.0" x="0.0" g="0.0" b="0.0" rho="1.063829779624939"/>
                <iidm:step r="0.0" x="0.0" g="0.0" b="0.0" rho="1.0416667461395264"/>
                <iidm:step r="0.0" x="0.0" g="0.0" b="0.0" rho="1.0204081535339355"/>
                <iidm:step r="0.0" x="0.0" g="0.0" b="0.0" rho="1.0"/>
                <iidm:step r="0.0" x="0.0" g="0.0" b="0.0" rho="0.9803921580314636"/>
                <iidm:step r="0.0" x="0.0" g="0.0" b="0.0" rho="0.9615384936332703"/>
                <iidm:step r="0.0" x="0.0" g="0.0" b="0.0" rho="0.943396270275116"/>
                <iidm:step r="0.0" x="0.0" g="0.0" b="0.0" rho="0.9259259104728699"/>
                <iidm:step r="0.0" x="0.0" g="0.0" b="0.0" rho="0.9090908765792847"/>
            </iidm:ratioTapChanger>
            <iidm:currentLimits1 permanentLimit="836.739990234375"/>
            <iidm:currentLimits2 permanentLimit="4183.7001953125"/>
        </iidm:twoWindingsTransformer>
    </iidm:substation>
    <iidm:substation id="_BUS____8_SS" name="BUS    8_SS" geographicalTags="_SGR_01">
        <iidm:voltageLevel id="_BUS____8_VL" name="BUS    8_VL" nominalV="13.800000190734863" topologyKind="BUS_BREAKER">
            <iidm:busBreakerTopology>
                <iidm:bus id="_BUS____8_TN" v="15.041999816894531" angle="-13.3749361038208"/>
            </iidm:busBreakerTopology>
            <iidm:generator id="_GEN____8_SM" name="GEN    8" energySource="OTHER" minP="-9999.0" maxP="9999.0" voltageRegulatorOn="true" targetP="-0.0" targetV="15.041999816894531" targetQ="17.30500030517578" bus="_BUS____8_TN" connectableBus="_BUS____8_TN" p="0.0" q="-17.30500030517578">
                <iidm:minMaxReactiveLimits minQ="-6.0" maxQ="24.0"/>
            </iidm:generator>
        </iidm:voltageLevel>
    </iidm:substation>
    <iidm:line id="_BUS___10-BUS___11-1_AC" name="BUS   10-BUS   11-1" r="0.15625600516796112" x="0.36577799916267395" g1="0.0" b1="0.0" g2="0.0" b2="0.0" bus1="_BUS___10_TN" connectableBus1="_BUS___10_TN" voltageLevelId1="_BUS___10_VL" bus2="_BUS___11_TN" connectableBus2="_BUS___11_TN" voltageLevelId2="_BUS___11_VL">
        <iidm:currentLimits1 permanentLimit="4183.7001953125"/>
    </iidm:line>
    <iidm:line id="_BUS___12-BUS___13-1_AC" name="BUS   12-BUS   13-1" r="0.42072001099586487" x="0.38065099716186523" g1="0.0" b1="0.0" g2="0.0" b2="0.0" bus1="_BUS___12_TN" connectableBus1="_BUS___12_TN" voltageLevelId1="_BUS___12_VL" bus2="_BUS___13_TN" connectableBus2="_BUS___13_TN" voltageLevelId2="_BUS___13_VL">
        <iidm:currentLimits1 permanentLimit="4183.7001953125"/>
    </iidm:line>
    <iidm:line id="_BUS___13-BUS___14-1_AC" name="BUS   13-BUS   14-1" r="0.32551899552345276" x="0.6627690196037292" g1="0.0" b1="0.0" g2="0.0" b2="0.0" bus1="_BUS___13_TN" connectableBus1="_BUS___13_TN" voltageLevelId1="_BUS___13_VL" bus2="_BUS___14_TN" connectableBus2="_BUS___14_TN" voltageLevelId2="_BUS___14_VL">
        <iidm:currentLimits1 permanentLimit="4183.7001953125"/>
    </iidm:line>
    <iidm:line id="_BUS____1-BUS____2-1_AC" name="BUS    1-BUS    2-1" r="0.922681987285614" x="2.817080020904541" g1="0.0" b1="5.545049789361656E-4" g2="0.0" b2="5.545049789361656E-4" bus1="_BUS____1_TN" connectableBus1="_BUS____1_TN" voltageLevelId1="_BUS____1_VL" bus2="_BUS____2_TN" connectableBus2="_BUS____2_TN" voltageLevelId2="_BUS____2_VL">
        <iidm:currentLimits1 permanentLimit="836.739990234375"/>
    </iidm:line>
    <iidm:line id="_BUS____1-BUS____5-1_AC" name="BUS    1-BUS    5-1" r="2.5723700523376465" x="10.618900299072266" g1="0.0" b1="5.166999762877822E-4" g2="0.0" b2="5.166999762877822E-4" bus1="_BUS____1_TN" connectableBus1="_BUS____1_TN" voltageLevelId1="_BUS____1_VL" bus2="_BUS____5_TN" connectableBus2="_BUS____5_TN" voltageLevelId2="_BUS____5_VL">
        <iidm:currentLimits1 permanentLimit="836.739990234375"/>
    </iidm:line>
    <iidm:line id="_BUS____2-BUS____3-1_AC" name="BUS    2-BUS    3-1" r="2.237190008163452" x="9.425350189208984" g1="0.0" b1="4.59987495560199E-4" g2="0.0" b2="4.59987495560199E-4" bus1="_BUS____2_TN" connectableBus1="_BUS____2_TN" voltageLevelId1="_BUS____2_VL" bus2="_BUS____3_TN" connectableBus2="_BUS____3_TN" voltageLevelId2="_BUS____3_VL">
        <iidm:currentLimits1 permanentLimit="836.739990234375"/>
    </iidm:line>
    <iidm:line id="_BUS____2-BUS____4-1_AC" name="BUS    2-BUS    4-1" r="2.766619920730591" x="8.394599914550781" g1="0.0" b1="3.5706799826584756E-4" g2="0.0" b2="3.5706799826584756E-4" bus1="_BUS____2_TN" connectableBus1="_BUS____2_TN" voltageLevelId1="_BUS____2_VL" bus2="_BUS____4_TN" connectableBus2="_BUS____4_TN" voltageLevelId2="_BUS____4_VL">
        <iidm:currentLimits1 permanentLimit="836.739990234375"/>
    </iidm:line>
    <iidm:line id="_BUS____2-BUS____5-1_AC" name="BUS    2-BUS    5-1" r="2.7113900184631348" x="8.278429985046387" g1="0.0" b1="3.6336900666356087E-4" g2="0.0" b2="3.6336900666356087E-4" bus1="_BUS____2_TN" connectableBus1="_BUS____2_TN" voltageLevelId1="_BUS____2_VL" bus2="_BUS____5_TN" connectableBus2="_BUS____5_TN" voltageLevelId2="_BUS____5_VL">
        <iidm:currentLimits1 permanentLimit="836.739990234375"/>
    </iidm:line>
    <iidm:line id="_BUS____3-BUS____4-1_AC" name="BUS    3-BUS    4-1" r="3.19035005569458" x="8.142740249633789" g1="0.0" b1="1.3442549970932305E-4" g2="0.0" b2="1.3442549970932305E-4" bus1="_BUS____3_TN" connectableBus1="_BUS____3_TN" voltageLevelId1="_BUS____3_VL" bus2="_BUS____4_TN" connectableBus2="_BUS____4_TN" voltageLevelId2="_BUS____4_VL">
        <iidm:currentLimits1 permanentLimit="836.739990234375"/>
    </iidm:line>
    <iidm:line id="_BUS____4-BUS____5-1_AC" name="BUS    4-BUS    5-1" r="0.6355929970741272" x="2.0048599243164062" g1="0.0" b1="0.0" g2="0.0" b2="0.0" bus1="_BUS____4_TN" connectableBus1="_BUS____4_TN" voltageLevelId1="_BUS____4_VL" bus2="_BUS____5_TN" connectableBus2="_BUS____5_TN" voltageLevelId2="_BUS____5_VL">
        <iidm:currentLimits1 permanentLimit="836.739990234375"/>
    </iidm:line>
    <iidm:line id="_BUS____6-BUS___11-1_AC" name="BUS    6-BUS   11-1" r="0.18087999522686005" x="0.37878501415252686" g1="0.0" b1="0.0" g2="0.0" b2="0.0" bus1="_BUS____6_TN" connectableBus1="_BUS____6_TN" voltageLevelId1="_BUS____6_VL" bus2="_BUS___11_TN" connectableBus2="_BUS___11_TN" voltageLevelId2="_BUS___11_VL">
        <iidm:currentLimits1 permanentLimit="4183.7001953125"/>
    </iidm:line>
    <iidm:line id="_BUS____6-BUS___12-1_AC" name="BUS    6-BUS   12-1" r="0.23407000303268433" x="0.48716500401496887" g1="0.0" b1="0.0" g2="0.0" b2="0.0" bus1="_BUS____6_TN" connectableBus1="_BUS____6_TN" voltageLevelId1="_BUS____6_VL" bus2="_BUS___12_TN" connectableBus2="_BUS___12_TN" voltageLevelId2="_BUS___12_VL">
        <iidm:currentLimits1 permanentLimit="4183.7001953125"/>
    </iidm:line>
    <iidm:line id="_BUS____6-BUS___13-1_AC" name="BUS    6-BUS   13-1" r="0.12597599625587463" x="0.24808600544929504" g1="0.0" b1="0.0" g2="0.0" b2="0.0" bus1="_BUS____6_TN" connectableBus1="_BUS____6_TN" voltageLevelId1="_BUS____6_VL" bus2="_BUS___13_TN" connectableBus2="_BUS___13_TN" voltageLevelId2="_BUS___13_VL">
        <iidm:currentLimits1 permanentLimit="4183.7001953125"/>
    </iidm:line>
    <iidm:line id="_BUS____7-BUS____8-1_AC" name="BUS    7-BUS    8-1" r="0.0" x="0.33546000719070435" g1="0.0" b1="0.0" g2="0.0" b2="0.0" bus1="_BUS____7_TN" connectableBus1="_BUS____7_TN" voltageLevelId1="_BUS____7_VL" bus2="_BUS____8_TN" connectableBus2="_BUS____8_TN" voltageLevelId2="_BUS____8_VL">
        <iidm:currentLimits1 permanentLimit="4183.7001953125"/>
    </iidm:line>
    <iidm:line id="_BUS____7-BUS____9-1_AC" name="BUS    7-BUS    9-1" r="0.0" x="0.20950299501419067" g1="0.0" b1="0.0" g2="0.0" b2="0.0" bus1="_BUS____7_TN" connectableBus1="_BUS____7_TN" voltageLevelId1="_BUS____7_VL" bus2="_BUS____9_TN" connectableBus2="_BUS____9_TN" voltageLevelId2="_BUS____9_VL">
        <iidm:currentLimits1 permanentLimit="4183.7001953125"/>
    </iidm:line>
    <iidm:line id="_BUS____9-BUS___10-1_AC" name="BUS    9-BUS   10-1" r="0.06057899817824364" x="0.16092200577259064" g1="0.0" b1="0.0" g2="0.0" b2="0.0" bus1="_BUS____9_TN" connectableBus1="_BUS____9_TN" voltageLevelId1="_BUS____9_VL" bus2="_BUS___10_TN" connectableBus2="_BUS___10_TN" voltageLevelId2="_BUS___10_VL">
        <iidm:currentLimits1 permanentLimit="4183.7001953125"/>
    </iidm:line>
    <iidm:line id="_BUS____9-BUS___14-1_AC" name="BUS    9-BUS   14-1" r="0.24206799268722534" x="0.5149120092391968" g1="0.0" b1="0.0" g2="0.0" b2="0.0" bus1="_BUS____9_TN" connectableBus1="_BUS____9_TN" voltageLevelId1="_BUS____9_VL" bus2="_BUS___14_TN" connectableBus2="_BUS___14_TN" voltageLevelId2="_BUS___14_VL">
        <iidm:currentLimits1 permanentLimit="4183.7001953125"/>
    </iidm:line>
</iidm:network>